4
Coordinates from ORCA-job ph3+
  P   -1.48941983225259     -0.30947449208410      0.28928276544832
  H   -0.35863994385400      0.41485992784713     -0.09834707032216
  H   -1.43230479099619     -1.65163648996836     -0.09601994164672
  H   -2.68146543289722      0.31018105420533     -0.09491575347943
